/*--------------------------------*- C++ -*----------------------------------*\
| =========                 |                                                 |
| \\      /  F ield         | OpenFOAM: The Open Source CFD Toolbox           |
|  \\    /   O peration     | Version:  2.3.0                                 |
|   \\  /    A nd           | Web:      www.OpenFOAM.org                      |
|    \\/     M anipulation  |                                                 |
\*---------------------------------------------------------------------------*/
FoamFile
{
    version     2.0;
    format      binary;
    class       polyBoundaryMesh;
    location    "constant/polyMesh";
    object      boundary;
}
// * * * * * * * * * * * * * * * * * * * * * * * * * * * * * * * * * * * * * //

5
(
    inlet
    {
        type            patch;
        nFaces          32;
        startFace       18931;
    }
    sides
    {
        type            wall;
        inGroups        1(wall);
        nFaces          602;
        startFace       18963;
    }
    outlet
    {
        type            patch;
        nFaces          32;
        startFace       19565;
    }
    frontandback
    {
        type            empty;
        inGroups        1(empty);
        nFaces          9632;
        startFace       19597;
    }
    frontandback2
    {
        type            empty;
        inGroups        1(empty);
        nFaces          9632;
        startFace       29229;
    }
)

// ************************************************************************* //
