/*--------------------------------*- C++ -*----------------------------------*\
| =========                 |                                                 |
| \\      /  F ield         | OpenFOAM: The Open Source CFD Toolbox           |
|  \\    /   O peration     | Version:  2.3.0                                 |
|   \\  /    A nd           | Web:      www.OpenFOAM.org                      |
|    \\/     M anipulation  |                                                 |
\*---------------------------------------------------------------------------*/
FoamFile
{
    version     2.0;
    format      ascii;
    class       dictionary;
    object      fvSchemes;
}
// * * * * * * * * * * * * * * * * * * * * * * * * * * * * * * * * * * * * * //

ddtSchemes
{
    default         Euler;	//CrankNicolson 0.9; //
}

gradSchemes
{
    default         leastSquares; //faceLimited Gauss upwind phi 1; //faceLimited Gauss linear 1; //
}

divSchemes
{
    default         no;
    div(phiv,hU)    bounded Gauss linearUpwind grad(hU);//bounded Gauss upwind; //Gauss SuperBee phi 1.0; //Gauss LUST un;//
    div(phiHbyA)    Gauss linear;

    div(qsbed)      Gauss linear;
    div(qsbedsurface,h0) Gauss linear;

    div(phivC,C)    bounded Gauss upwind; //Gauss LUST un; //
    div(phik,U)      bounded Gauss upwind; //bounded Gauss linearUpwind grad(U); //
    div(phik,k)      bounded Gauss upwind;
    div(phik,epsilon) bounded Gauss upwind;
    div(phik,R)      bounded Gauss upwind;
    div(R)          Gauss linear;
    div(phik,nuTilda) bounded Gauss upwind;
    div((nuEff*dev(T(grad(U))))) Gauss linear;
    div(muEff*dev(T(fvc::grad(U)))) Gauss linear;
}

laplacianSchemes
{
    default         Gauss linear corrected; //Gauss linear limited 1.0; //
}

interpolationSchemes
{
    default         midPoint; //linear; //limitedLinear phi 1.0; //upwind phi; //Minmod phi 1.0; //filteredLinear2 phi 0.2 0; //
}

snGradSchemes
{
    default         corrected; //limited 1.0;
}

fluxRequired
{
    default         no;
	C;
	h;
}


// ************************************************************************* //
