/*--------------------------------*- C++ -*----------------------------------*\
| =========                 |                                                 |
| \\      /  F ield         | OpenFOAM: The Open Source CFD Toolbox           |
|  \\    /   O peration     | Version:  2.4.0                                 |
|   \\  /    A nd           | Web:      www.OpenFOAM.org                      |
|    \\/     M anipulation  |                                                 |
\*---------------------------------------------------------------------------*/
FoamFile
{
    version     2.0;
    format      ascii;
    class       polyBoundaryMesh;
    location    "constant/polyMesh";
    object      boundary;
}
// * * * * * * * * * * * * * * * * * * * * * * * * * * * * * * * * * * * * * //

4
(
    sides
    {
        type            wall;
        inGroups        1(wall);
        nFaces          2000;
        startFace       999;
    }
    outlet
    {
        type            patch;
        nFaces          1;
        startFace       2999;
    }
    inlet
    {
        type            patch;
        nFaces          1;
        startFace       3000;
    }
    frontandback
    {
        type            empty;
        inGroups        1(empty);
        nFaces          2000;
        startFace       3001;
    }
)

// ************************************************************************* //
